tests/main/reference/distant_regulation/outputIIDM.xml
<?xml version="1.0" encoding="UTF-8"?>
<iidm:network xmlns:iidm="http://www.powsybl.org/schema/iidm/1_4" id="urn:uuid:9eb192d5-4cec-11ea-80e2-00155d739404" caseDate="2020-02-12T09:30:00+00:00" forecastDistance="1013" sourceFormat="CGMES">
    <iidm:property name="CGMESModelDetail" value="bus-branch"/>
    <iidm:substation id="_2b6ed856-027e-11e7-afc1-94659cb4e466" name="ZEZERE" country="PT" geographicalTags="_2b6ed85d-027e-11e7-afc1-94659cb4e466">
        <iidm:voltageLevel id="_2b6ed85e-027e-11e7-afc1-94659cb4e466" name="ZEZ_150" nominalV="150" topologyKind="BUS_BREAKER">
            <iidm:busBreakerTopology>
                <iidm:bus id="_2b6ed857-027e-11e7-afc1-94659cb4e466" name="ZEZERE" v="149.956039" angle="4.7506331354336728"/>
            </iidm:busBreakerTopology>
        </iidm:voltageLevel>
        <iidm:voltageLevel id="_2b6ed9d3-027e-11e7-afc1-94659cb4e466" name="ZEZ_220" nominalV="220" topologyKind="BUS_BREAKER">
            <iidm:busBreakerTopology>
                <iidm:bus id="_2b6ed9d2-027e-11e7-afc1-94659cb4e466" name="ZEZERE" v="220" angle="3.0173852749629821"/>
            </iidm:busBreakerTopology>
        </iidm:voltageLevel>
        <iidm:voltageLevel id="_2b6edd40-027e-11e7-afc1-94659cb4e466" name="ZEZ_63" nominalV="63" topologyKind="BUS_BREAKER">
            <iidm:busBreakerTopology>
                <iidm:bus id="_2b6edd3f-027e-11e7-afc1-94659cb4e466" name="ZEZERE" v="63.919649999999976" angle="1.1618784430660958"/>
            </iidm:busBreakerTopology>
            <iidm:generator id="_3d3ba8e7-8907-11e8-80ec-00155d38aa06" name="601_E1" energySource="WIND" minP="0" maxP="70" ratedS="70" voltageRegulatorOn="false" targetP="1.3" targetQ="-0" bus="_2b6edd3f-027e-11e7-afc1-94659cb4e466" connectableBus="_2b6edd3f-027e-11e7-afc1-94659cb4e466" p="-1.3000000000000003" q="0">
                <iidm:minMaxReactiveLimits minQ="0" maxQ="0"/>
            </iidm:generator>
            <iidm:generator id="_3d3ba8ed-8907-11e8-80ec-00155d38aa06" name="601_E2" energySource="WIND" minP="0" maxP="45" ratedS="45" voltageRegulatorOn="false" targetP="0.20000000000000001" targetQ="-0" bus="_2b6edd3f-027e-11e7-afc1-94659cb4e466" connectableBus="_2b6edd3f-027e-11e7-afc1-94659cb4e466" p="-0.20000000000000001" q="-6.7762635780344027e-19">
                <iidm:minMaxReactiveLimits minQ="0" maxQ="0"/>
            </iidm:generator>
            <iidm:generator id="_3d3ba8f3-8907-11e8-80ec-00155d38aa06" name="601_H " energySource="HYDRO" minP="0" maxP="20.576000000000001" ratedS="21" voltageRegulatorOn="false" targetP="7.4000000000000004" targetQ="-0" bus="_2b6edd3f-027e-11e7-afc1-94659cb4e466" connectableBus="_2b6edd3f-027e-11e7-afc1-94659cb4e466" p="-7.4000000000000012" q="0">
                <iidm:minMaxReactiveLimits minQ="0" maxQ="0"/>
            </iidm:generator>
            <iidm:generator id="_3d3ba8f9-8907-11e8-80ec-00155d38aa06" name="601_T " energySource="OTHER" minP="0" maxP="119.658" ratedS="120" voltageRegulatorOn="false" targetP="40.799999999999997" targetQ="-0" bus="_2b6edd3f-027e-11e7-afc1-94659cb4e466" connectableBus="_2b6edd3f-027e-11e7-afc1-94659cb4e466" p="-40.800000000000004" q="-8.6736173798840355e-17">
                <iidm:minMaxReactiveLimits minQ="0" maxQ="0"/>
            </iidm:generator>
            <iidm:generator id="_3d3ba8ff-8907-11e8-80ec-00155d38aa06" name="601_V1" energySource="OTHER" minP="0" maxP="33.600000000000001" ratedS="34" voltageRegulatorOn="false" targetP="0.69999999999999996" targetQ="-0" bus="_2b6edd3f-027e-11e7-afc1-94659cb4e466" connectableBus="_2b6edd3f-027e-11e7-afc1-94659cb4e466" p="-0.69999999999999996" q="1.3552527156068805e-18">
                <iidm:minMaxReactiveLimits minQ="0" maxQ="0"/>
            </iidm:generator>
            <iidm:load id="_2b6ef08c-027e-11e7-afc1-94659cb4e466" name="601_1 " loadType="UNDEFINED" p0="189.352" q0="14.523999999999999" bus="_2b6edd3f-027e-11e7-afc1-94659cb4e466" connectableBus="_2b6edd3f-027e-11e7-afc1-94659cb4e466" p="189.352" q="14.523999999999997"/>
        </iidm:voltageLevel>
        <iidm:twoWindingsTransformer id="_2be152f2-027e-11e7-afc1-94659cb4e466" name="AT 0 220/150 SZR" r="0.252" x="10.744214876033055" g="3.4000462222222223e-06" b="-2.3933262222222224e-05" ratedU1="220" ratedU2="150" connectableBus1="_2b6ed9d2-027e-11e7-afc1-94659cb4e466" voltageLevelId1="_2b6ed9d3-027e-11e7-afc1-94659cb4e466" connectableBus2="_2b6ed857-027e-11e7-afc1-94659cb4e466" voltageLevelId2="_2b6ed85e-027e-11e7-afc1-94659cb4e466" p1="0" q1="0" p2="0" q2="0">
            <iidm:ratioTapChanger lowTapPosition="1" tapPosition="9" targetDeadband="15" loadTapChangingCapabilities="true" regulating="true" targetV="150">
                <iidm:terminalRef id="_2be15315-027e-11e7-afc1-94659cb4e466" side="ONE"/>
                <iidm:step r="-19.735602278399988" x="-19.735602278399988" g="24.588239416999858" b="24.588239416999858" rho="0.89590400000000003"/>
                <iidm:step r="-17.387170494399996" x="-17.387170494399996" g="21.046574240894845" b="21.046574240894845" rho="0.90891600000000006"/>
                <iidm:step r="-15.00487628160001" x="-15.00487628160001" g="17.653808389423766" b="17.653808389423766" rho="0.92192799999999997"/>
                <iidm:step r="-12.588719640000001" x="-12.588719640000001" g="14.401710612353291" b="14.401710612353291" rho="0.93493999999999999"/>
                <iidm:step r="-10.138700569600001" x="-10.138700569600001" g="11.282610683203732" b="11.282610683203732" rho="0.94795200000000002"/>
                <iidm:step r="-7.6548190703999879" x="-7.6548190703999879" g="8.2893541312520682" b="8.2893541312520682" rho="0.96096399999999993"/>
                <iidm:step r="-5.137075142400005" x="-5.137075142400005" g="5.4152611782857685" b="5.4152611782857685" rho="0.97397599999999995"/>
                <iidm:step r="-2.5854687856000091" x="-2.5854687856000091" g="2.654089439602858" b="2.654089439602858" rho="0.98698799999999987"/>
                <iidm:step r="0" x="0" g="0" b="0" rho="1"/>
                <iidm:step r="2.6193312144000114" x="2.6193312144000114" g="-2.5524734798042181" b="-2.5524734798042181" rho="1.013012"/>
                <iidm:step r="5.2725248576000139" x="5.2725248576000139" g="-5.0084529317901749" b="-5.0084529317901749" rho="1.026024"/>
                <iidm:step r="7.9595809296000075" x="7.9595809296000075" g="-7.3727415955703091" b="-7.3727415955703091" rho="1.0390360000000001"/>
                <iidm:step r="10.680499430400015" x="10.680499430400015" g="-9.6498475208962269" b="-9.6498475208962269" rho="1.0520480000000001"/>
                <iidm:step r="13.435280359999968" x="13.435280359999968" g="-11.844005072638385" b="-11.844005072638385" rho="1.0650599999999999"/>
                <iidm:step r="16.22392371839998" x="16.22392371839998" g="-13.959194629936157" b="-13.959194629936157" rho="1.0780719999999999"/>
                <iidm:step r="19.046429505599981" x="19.046429505599981" g="-15.999160650764443" b="-15.999160650764443" rho="1.0910839999999999"/>
                <iidm:step r="21.902797721599999" x="21.902797721599999" g="-17.96742825510972" b="-17.96742825510972" rho="1.104096"/>
                <iidm:step r="24.793028366400005" x="24.793028366400005" g="-19.867318463981942" b="-19.867318463981942" rho="1.117108"/>
                <iidm:step r="27.717121440000003" x="27.717121440000003" g="-21.701962217353277" b="-21.701962217353277" rho="1.13012"/>
                <iidm:step r="30.675076942400015" x="30.675076942400015" g="-23.474313281576421" b="-23.474313281576421" rho="1.143132"/>
                <iidm:step r="33.666894873600015" x="33.666894873600015" g="-25.187160145701437" b="-25.187160145701437" rho="1.1561440000000001"/>
                <iidm:step r="36.69257523360001" x="36.69257523360001" g="-26.843136996208049" b="-26.843136996208049" rho="1.1691560000000001"/>
                <iidm:step r="39.752118022399976" x="39.752118022399976" g="-28.444733850851811" b="-28.444733850851811" rho="1.1821679999999999"/>
                <iidm:step r="42.84552323999997" x="42.84552323999997" g="-29.994305924459141" b="-29.994305924459141" rho="1.1951799999999999"/>
            </iidm:ratioTapChanger>
            <iidm:currentLimits1 permanentLimit="393.64791100000002">
                <iidm:temporaryLimit name="_ed0ea055-4826-11ea-80e2-00155d739404" acceptableDuration="7200" value="393.64791100000002"/>
                <iidm:temporaryLimit name="_ed0ea056-4826-11ea-80e2-00155d739404" acceptableDuration="900" value="393.64791100000002"/>
            </iidm:currentLimits1>
            <iidm:currentLimits2 permanentLimit="577.35026900000003">
                <iidm:temporaryLimit name="_ed0ea051-4826-11ea-80e2-00155d739404" acceptableDuration="7200" value="577.35026900000003"/>
                <iidm:temporaryLimit name="_ed0ea052-4826-11ea-80e2-00155d739404" acceptableDuration="900" value="577.35026900000003"/>
            </iidm:currentLimits2>
        </iidm:twoWindingsTransformer>
        <iidm:twoWindingsTransformer id="_2be15315-027e-11e7-afc1-94659cb4e466" name="TR 3 150/60 SZR" r="0.065091083267289268" x="3.8491903858284671" g="1.7153218412653062e-05" b="-9.0811824036281175e-06" ratedU1="150.09" ratedU2="63" bus1="_2b6ed857-027e-11e7-afc1-94659cb4e466" connectableBus1="_2b6ed857-027e-11e7-afc1-94659cb4e466" voltageLevelId1="_2b6ed85e-027e-11e7-afc1-94659cb4e466" bus2="_2b6edd3f-027e-11e7-afc1-94659cb4e466" connectableBus2="_2b6edd3f-027e-11e7-afc1-94659cb4e466" voltageLevelId2="_2b6edd40-027e-11e7-afc1-94659cb4e466" p1="66.973154692264487" q1="6.7825967457104754" p2="-66.831051909167144" q2="-2.531233492816745">
            <iidm:ratioTapChanger lowTapPosition="1" tapPosition="11" targetDeadband="2.52" loadTapChangingCapabilities="true" regulating="true" targetV="63">
                <iidm:terminalRef id="_3d3ba8f9-8907-11e8-80ec-00155d38aa06"/>
                <iidm:step r="0" x="0" g="0" b="0" rho="1.1408440420560748"/>
                <iidm:step r="0" x="0" g="0" b="0" rho="1.1276092878921824"/>
                <iidm:step r="0" x="0" g="0" b="0" rho="1.1146780809702157"/>
                <iidm:step r="0" x="0" g="0" b="0" rho="1.1020400966268757"/>
                <iidm:step r="0" x="0" g="0" b="0" rho="1.0896854731850198"/>
                <iidm:step r="0" x="0" g="0" b="0" rho="1.0776047862894187"/>
                <iidm:step r="0" x="0" g="0" b="0" rho="1.065789024930937"/>
                <iidm:step r="0" x="0" g="0" b="0" rho="1.0542295690309522"/>
                <iidm:step r="0" x="0" g="0" b="0" rho="1.0429181684688291"/>
                <iidm:step r="0" x="0" g="0" b="0" rho="1.031846923445213"/>
                <iidm:step r="0" x="0" g="0" b="0" rho="1.0210082660829223"/>
                <iidm:step r="0" x="0" g="0" b="0" rho="1.0103949431753882"/>
                <iidm:step r="0" x="0" g="0" b="0" rho="1"/>
                <iidm:step r="0" x="0" g="0" b="0" rho="0.98981676512044081"/>
                <iidm:step r="0" x="0" g="0" b="0" rho="0.97983883610823697"/>
                <iidm:step r="0" x="0" g="0" b="0" rho="0.97006006611929407"/>
                <iidm:step r="0" x="0" g="0" b="0" rho="0.96047455126628956"/>
                <iidm:step r="0" x="0" g="0" b="0" rho="0.95107661873240512"/>
                <iidm:step r="0" x="0" g="0" b="0" rho="0.94186081557611745"/>
                <iidm:step r="0" x="0" g="0" b="0" rho="0.93282189818062411"/>
                <iidm:step r="0" x="0" g="0" b="0" rho="0.92395482230500858"/>
                <iidm:step r="0" x="0" g="0" b="0" rho="0.91525473369748267"/>
                <iidm:step r="0" x="0" g="0" b="0" rho="0.90671695923400542"/>
                <iidm:step r="0" x="0" g="0" b="0" rho="0.89833699854828741"/>
                <iidm:step r="0" x="0" g="0" b="0" rho="0.89011051612168168"/>
            </iidm:ratioTapChanger>
            <iidm:currentLimits1 permanentLimit="653.93794200000002">
                <iidm:temporaryLimit name="_ed0ea061-4826-11ea-80e2-00155d739404" acceptableDuration="7200" value="686.63483900000006"/>
                <iidm:temporaryLimit name="_ed0ea062-4826-11ea-80e2-00155d739404" acceptableDuration="900" value="719.33173699999998"/>
            </iidm:currentLimits1>
            <iidm:currentLimits2 permanentLimit="1557.929298">
                <iidm:temporaryLimit name="_ed0ea065-4826-11ea-80e2-00155d739404" acceptableDuration="7200" value="1635.8257630000001"/>
                <iidm:temporaryLimit name="_ed0ea066-4826-11ea-80e2-00155d739404" acceptableDuration="900" value="1713.7222280000001"/>
            </iidm:currentLimits2>
        </iidm:twoWindingsTransformer>
        <iidm:twoWindingsTransformer id="_2be15304-027e-11e7-afc1-94659cb4e466" name="AT 1 220/150 SZR" r="0.15120092975206609" x="8.9953512396694215" g="1.6133333333333335e-06" b="-3.4443591111111117e-06" ratedU1="220" ratedU2="150" bus1="_2b6ed9d2-027e-11e7-afc1-94659cb4e466" connectableBus1="_2b6ed9d2-027e-11e7-afc1-94659cb4e466" voltageLevelId1="_2b6ed9d3-027e-11e7-afc1-94659cb4e466" bus2="_2b6ed857-027e-11e7-afc1-94659cb4e466" connectableBus2="_2b6ed857-027e-11e7-afc1-94659cb4e466" voltageLevelId2="_2b6ed85e-027e-11e7-afc1-94659cb4e466" p1="-73.238512451818465" q1="52.167859878334447" p2="73.329127884234069" q2="-48.858990185014036">
            <iidm:ratioTapChanger lowTapPosition="1" tapPosition="13" targetDeadband="15" loadTapChangingCapabilities="true" regulating="true" targetV="150">
                <iidm:terminalRef id="_2be15315-027e-11e7-afc1-94659cb4e466" side="ONE"/>
                <iidm:step r="-18.999999999999993" x="-18.999999999999993" g="23.456790123456784" b="23.456790123456784" rho="0.89999999999999991"/>
                <iidm:step r="-17.189999999999994" x="-17.189999999999994" g="20.758362516604258" b="20.758362516604258" rho="0.91000000000000014"/>
                <iidm:step r="-15.359999999999996" x="-15.359999999999996" g="18.147448015122869" b="18.147448015122869" rho="0.92000000000000004"/>
                <iidm:step r="-13.51000000000001" x="-13.51000000000001" g="15.620302925193673" b="15.620302925193673" rho="0.92999999999999983"/>
                <iidm:step r="-11.640000000000006" x="-11.640000000000006" g="13.173381620642832" b="13.173381620642832" rho="0.94000000000000006"/>
                <iidm:step r="-9.7500000000000036" x="-9.7500000000000036" g="10.803324099723" b="10.803324099723" rho="0.95000000000000007"/>
                <iidm:step r="-7.8400000000000025" x="-7.8400000000000025" g="8.5069444444444429" b="8.5069444444444429" rho="0.95999999999999996"/>
                <iidm:step r="-5.9100000000000037" x="-5.9100000000000037" g="6.2812201084068597" b="6.2812201084068597" rho="0.96999999999999986"/>
                <iidm:step r="-3.960000000000008" x="-3.960000000000008" g="4.1232819658475695" b="4.1232819658475695" rho="0.97999999999999998"/>
                <iidm:step r="-1.9900000000000029" x="-1.9900000000000029" g="2.0304050607080848" b="2.0304050607080848" rho="0.98999999999999999"/>
                <iidm:step r="0" x="0" g="0" b="0" rho="1"/>
                <iidm:step r="2.0100000000000007" x="2.0100000000000007" g="-1.9703950593079167" b="-1.9703950593079167" rho="1.01"/>
                <iidm:step r="4.0399999999999991" x="4.0399999999999991" g="-3.8831218762014563" b="-3.8831218762014563" rho="1.02"/>
                <iidm:step r="6.0899999999999954" x="6.0899999999999954" g="-5.7404090866245649" b="-5.7404090866245649" rho="1.03"/>
                <iidm:step r="8.1600000000000108" x="8.1600000000000108" g="-7.5443786982248628" b="-7.5443786982248628" rho="1.04"/>
                <iidm:step r="10.250000000000004" x="10.250000000000004" g="-9.2970521541950184" b="-9.2970521541950184" rho="1.05"/>
                <iidm:step r="12.360000000000015" x="12.360000000000015" g="-11.000355998576017" b="-11.000355998576017" rho="1.0600000000000001"/>
                <iidm:step r="14.490000000000002" x="14.490000000000002" g="-12.656127172678843" b="-12.656127172678843" rho="1.0700000000000001"/>
                <iidm:step r="16.640000000000011" x="16.640000000000011" g="-14.266117969821678" b="-14.266117969821678" rho="1.0800000000000001"/>
                <iidm:step r="18.810000000000016" x="18.810000000000016" g="-15.832000673344005" b="-15.832000673344005" rho="1.0900000000000001"/>
                <iidm:step r="21.000000000000018" x="21.000000000000018" g="-17.355371900826455" b="-17.355371900826455" rho="1.1000000000000001"/>
            </iidm:ratioTapChanger>
            <iidm:currentLimits1 permanentLimit="656.07985099999996">
                <iidm:temporaryLimit name="_ed0ea05d-4826-11ea-80e2-00155d739404" acceptableDuration="7200" value="688.88384399999995"/>
                <iidm:temporaryLimit name="_ed0ea05e-4826-11ea-80e2-00155d739404" acceptableDuration="900" value="721.68783599999995"/>
            </iidm:currentLimits1>
            <iidm:currentLimits2 permanentLimit="962.250449">
                <iidm:temporaryLimit name="_ed0ea059-4826-11ea-80e2-00155d739404" acceptableDuration="7200" value="1010.362971"/>
                <iidm:temporaryLimit name="_ed0ea05a-4826-11ea-80e2-00155d739404" acceptableDuration="900" value="1058.475494"/>
            </iidm:currentLimits2>
        </iidm:twoWindingsTransformer>
        <iidm:twoWindingsTransformer id="_2be158a5-027e-11e7-afc1-94659cb4e466" name="TR 2 220/60 SZR" r="0.070251300000000017" x="3.6756712190082652" g="1.7888122952884855e-05" b="-5.5430133534895433e-06" ratedU1="220" ratedU2="63" bus1="_2b6ed9d2-027e-11e7-afc1-94659cb4e466" connectableBus1="_2b6ed9d2-027e-11e7-afc1-94659cb4e466" voltageLevelId1="_2b6ed9d3-027e-11e7-afc1-94659cb4e466" bus2="_2b6edd3f-027e-11e7-afc1-94659cb4e466" connectableBus2="_2b6edd3f-027e-11e7-afc1-94659cb4e466" voltageLevelId2="_2b6edd40-027e-11e7-afc1-94659cb4e466" p1="36.44434740903386" q1="7.2091048227434591" p2="-36.346977975000321" q2="-5.9656298159336698">
            <iidm:ratioTapChanger lowTapPosition="1" tapPosition="11" targetDeadband="2.52" loadTapChangingCapabilities="true" regulating="true" targetV="63">
                <iidm:terminalRef id="_3d3ba8f9-8907-11e8-80ec-00155d38aa06"/>
                <iidm:step r="0" x="0" g="0" b="0" rho="1.1423766918598806"/>
                <iidm:step r="0" x="0" g="0" b="0" rho="1.1289816359847091"/>
                <iidm:step r="0" x="0" g="0" b="0" rho="1.1158970696542951"/>
                <iidm:step r="0" x="0" g="0" b="0" rho="1.1031123211027594"/>
                <iidm:step r="0" x="0" g="0" b="0" rho="1.0906172020870051"/>
                <iidm:step r="0" x="0" g="0" b="0" rho="1.0784019808087584"/>
                <iidm:step r="0" x="0" g="0" b="0" rho="1.0664573566361375"/>
                <iidm:step r="0" x="0" g="0" b="0" rho="1.0547744364867573"/>
                <iidm:step r="0" x="0" g="0" b="0" rho="1.0433447127463338"/>
                <iidm:step r="0" x="0" g="0" b="0" rho="1.0321600426075666"/>
                <iidm:step r="0" x="0" g="0" b="0" rho="1.0212126287238519"/>
                <iidm:step r="0" x="0" g="0" b="0" rho="1.0104950010812297"/>
                <iidm:step r="0" x="0" g="0" b="0" rho="1"/>
                <iidm:step r="0" x="0" g="0" b="0" rho="0.98972076018472144"/>
                <iidm:step r="0" x="0" g="0" b="0" rho="0.97965069574792407"/>
                <iidm:step r="0" x="0" g="0" b="0" rho="0.96978348613888465"/>
                <iidm:step r="0" x="0" g="0" b="0" rho="0.96011306291428877"/>
                <iidm:step r="0" x="0" g="0" b="0" rho="0.95063359729259544"/>
                <iidm:step r="0" x="0" g="0" b="0" rho="0.94133948843846837"/>
                <iidm:step r="0" x="0" g="0" b="0" rho="0.93222535242779447"/>
                <iidm:step r="0" x="0" g="0" b="0" rho="0.92328601184760606"/>
                <iidm:step r="0" x="0" g="0" b="0" rho="0.91451648598869284"/>
                <iidm:step r="0" x="0" g="0" b="0" rho="0.90591198159186848"/>
                <iidm:step r="0" x="0" g="0" b="0" rho="0.89746788411176703"/>
                <iidm:step r="0" x="0" g="0" b="0" rho="0.88917974946471368"/>
            </iidm:ratioTapChanger>
            <iidm:currentLimits1 permanentLimit="446.134299">
                <iidm:temporaryLimit name="_4ec91acc-4827-11ea-80e2-00155d739404" acceptableDuration="7200" value="468.441014"/>
                <iidm:temporaryLimit name="_4ec91acd-4827-11ea-80e2-00155d739404" acceptableDuration="900" value="490.74772899999999"/>
            </iidm:currentLimits1>
            <iidm:currentLimits2 permanentLimit="1557.929298">
                <iidm:temporaryLimit name="_4ec91ad0-4827-11ea-80e2-00155d739404" acceptableDuration="7200" value="1635.8257630000001"/>
                <iidm:temporaryLimit name="_4ec91ad1-4827-11ea-80e2-00155d739404" acceptableDuration="900" value="1713.7222280000001"/>
            </iidm:currentLimits2>
        </iidm:twoWindingsTransformer>
        <iidm:twoWindingsTransformer id="_2be158b6-027e-11e7-afc1-94659cb4e466" name="TR 4 220/60 SZR" r="0.060725700000000007" x="3.7332381198347111" g="1.7636916099773242e-05" b="-1.0833966238347189e-05" ratedU1="220" ratedU2="63" bus1="_2b6ed9d2-027e-11e7-afc1-94659cb4e466" connectableBus1="_2b6ed9d2-027e-11e7-afc1-94659cb4e466" voltageLevelId1="_2b6ed9d3-027e-11e7-afc1-94659cb4e466" bus2="_2b6edd3f-027e-11e7-afc1-94659cb4e466" connectableBus2="_2b6edd3f-027e-11e7-afc1-94659cb4e466" voltageLevelId2="_2b6edd40-027e-11e7-afc1-94659cb4e466" p1="35.866533589829608" q1="7.2748342554769643" p2="-35.773963339928244" q2="-6.027423282174933">
            <iidm:ratioTapChanger lowTapPosition="1" tapPosition="13" targetDeadband="2.52" loadTapChangingCapabilities="true" regulating="true" targetV="63">
                <iidm:terminalRef id="_3d3ba8f9-8907-11e8-80ec-00155d38aa06"/>
                <iidm:step r="0" x="0" g="0" b="0" rho="1.1705846133676081"/>
                <iidm:step r="0" x="0" g="0" b="0" rho="1.1564931888333645"/>
                <iidm:step r="0" x="0" g="0" b="0" rho="1.1427369922248176"/>
                <iidm:step r="0" x="0" g="0" b="0" rho="1.1293042018021437"/>
                <iidm:step r="0" x="0" g="0" b="0" rho="1.1161835452221764"/>
                <iidm:step r="0" x="0" g="0" b="0" rho="1.1033642679895268"/>
                <iidm:step r="0" x="0" g="0" b="0" rho="1.0908361040570376"/>
                <iidm:step r="0" x="0" g="0" b="0" rho="1.0785892484066542"/>
                <iidm:step r="0" x="0" g="0" b="0" rho="1.0666143314568033"/>
                <iidm:step r="0" x="0" g="0" b="0" rho="1.0549023951558882"/>
                <iidm:step r="0" x="0" g="0" b="0" rho="1.0434448706337049"/>
                <iidm:step r="0" x="0" g="0" b="0" rho="1.0322335572936074"/>
                <iidm:step r="0" x="0" g="0" b="0" rho="1.0212606032382132"/>
                <iidm:step r="0" x="0" g="0" b="0" rho="1.0105184869304591"/>
                <iidm:step r="0" x="0" g="0" b="0" rho="1"/>
                <iidm:step r="0" x="0" g="0" b="0" rho="0.98969823111235167"/>
                <iidm:step r="0" x="0" g="0" b="0" rho="0.97960655082492665"/>
                <iidm:step r="0" x="0" g="0" b="0" rho="0.96971859736023214"/>
                <iidm:step r="0" x="0" g="0" b="0" rho="0.96002826323206958"/>
                <iidm:step r="0" x="0" g="0" b="0" rho="0.95052968266566551"/>
                <iidm:step r="0" x="0" g="0" b="0" rho="0.9412172197572789"/>
                <iidm:step r="0" x="0" g="0" b="0" rho="0.93208545732306924"/>
                <iidm:step r="0" x="0" g="0" b="0" rho="0.92312918639086028"/>
                <iidm:step r="0" x="0" g="0" b="0" rho="0.91434339629197192"/>
                <iidm:step r="0" x="0" g="0" b="0" rho="0.9057232653135161"/>
            </iidm:ratioTapChanger>
            <iidm:currentLimits1 permanentLimit="446.134299">
                <iidm:temporaryLimit name="_4ec91ad4-4827-11ea-80e2-00155d739404" acceptableDuration="7200" value="468.441014"/>
                <iidm:temporaryLimit name="_4ec91ad5-4827-11ea-80e2-00155d739404" acceptableDuration="900" value="490.74772899999999"/>
            </iidm:currentLimits1>
            <iidm:currentLimits2 permanentLimit="1557.929298">
                <iidm:temporaryLimit name="_4ec91ad8-4827-11ea-80e2-00155d739404" acceptableDuration="7200" value="1635.8257630000001"/>
                <iidm:temporaryLimit name="_4ec91ad9-4827-11ea-80e2-00155d739404" acceptableDuration="900" value="1713.7222280000001"/>
            </iidm:currentLimits2>
        </iidm:twoWindingsTransformer>
    </iidm:substation>
    <iidm:substation id="_2b6ed995-027e-11e7-afc1-94659cb4e466" name="C.BRANCO" country="PT" geographicalTags="_2b6ed85d-027e-11e7-afc1-94659cb4e466">
        <iidm:voltageLevel id="_2b6ed997-027e-11e7-afc1-94659cb4e466" name="C.B_150" nominalV="150" topologyKind="BUS_BREAKER">
            <iidm:busBreakerTopology>
                <iidm:bus id="_2b6ed996-027e-11e7-afc1-94659cb4e466" name="C.BRANCO" v="149.77819594495966" angle="3.5671765533976156"/>
            </iidm:busBreakerTopology>
        </iidm:voltageLevel>
        <iidm:voltageLevel id="_2b6edb8f-027e-11e7-afc1-94659cb4e466" name="C.B_220" nominalV="220" topologyKind="BUS_BREAKER">
            <iidm:busBreakerTopology>
                <iidm:bus id="_2b6edb8e-027e-11e7-afc1-94659cb4e466" name="C.BRANCO" v="219.77071618046247" angle="3.946417442922634"/>
            </iidm:busBreakerTopology>
            <iidm:shunt id="_3d3bb93e-8907-11e8-80ec-00155d38aa06" name="C.BRANCO_1" sectionCount="0" voltageRegulatorOn="true" targetV="220" targetDeadband="22" bus="_2b6edb8e-027e-11e7-afc1-94659cb4e466" connectableBus="_2b6edb8e-027e-11e7-afc1-94659cb4e466" q="0">
                <iidm:shuntLinearModel bPerSection="-0.0014463" maximumSectionCount="1"/>
                <iidm:regulatingTerminal id="_63b04e82-db70-11e8-80ee-00155d38aa06" side="ONE"/>
            </iidm:shunt>
        </iidm:voltageLevel>
        <iidm:voltageLevel id="_2b6edfbe-027e-11e7-afc1-94659cb4e466" name="C.B_63" nominalV="63" topologyKind="BUS_BREAKER">
            <iidm:busBreakerTopology>
                <iidm:bus id="_2b6edfbd-027e-11e7-afc1-94659cb4e466" name="C.BRANCO" v="63.387336007979719" angle="2.5063760598901914"/>
            </iidm:busBreakerTopology>
            <iidm:generator id="_3d3bacba-8907-11e8-80ec-00155d38aa06" name="681_E1" energySource="WIND" minP="0" maxP="60" ratedS="60" voltageRegulatorOn="false" targetP="0.69999999999999996" targetQ="-0" bus="_2b6edfbd-027e-11e7-afc1-94659cb4e466" connectableBus="_2b6edfbd-027e-11e7-afc1-94659cb4e466" p="-0.70000000000000007" q="0">
                <iidm:minMaxReactiveLimits minQ="0" maxQ="0"/>
            </iidm:generator>
            <iidm:generator id="_3d3bacc0-8907-11e8-80ec-00155d38aa06" name="681_E2" energySource="WIND" minP="0" maxP="80" ratedS="80" voltageRegulatorOn="false" targetP="0.40000000000000002" targetQ="-0" bus="_2b6edfbd-027e-11e7-afc1-94659cb4e466" connectableBus="_2b6edfbd-027e-11e7-afc1-94659cb4e466" p="-0.40000000000000008" q="2.7105054312137611e-18">
                <iidm:minMaxReactiveLimits minQ="0" maxQ="0"/>
            </iidm:generator>
            <iidm:generator id="_3d3bacc6-8907-11e8-80ec-00155d38aa06" name="681_H " energySource="HYDRO" minP="0" maxP="22.5" ratedS="23" voltageRegulatorOn="false" targetP="1.6000000000000001" targetQ="-0" bus="_2b6edfbd-027e-11e7-afc1-94659cb4e466" connectableBus="_2b6edfbd-027e-11e7-afc1-94659cb4e466" p="-1.6000000000000003" q="1.0842021724855044e-17">
                <iidm:minMaxReactiveLimits minQ="0" maxQ="0"/>
            </iidm:generator>
            <iidm:load id="_2b6ef1be-027e-11e7-afc1-94659cb4e466" name="681_1 " loadType="UNDEFINED" p0="33.695999999999998" q0="1.1259999999999999" bus="_2b6edfbd-027e-11e7-afc1-94659cb4e466" connectableBus="_2b6edfbd-027e-11e7-afc1-94659cb4e466" p="33.695999999999998" q="1.1259999999999999"/>
        </iidm:voltageLevel>
        <iidm:twoWindingsTransformer id="_2be1579f-027e-11e7-afc1-94659cb4e466" name="TR 4 150/60 SCC" r="0.19924451794937587" x="6.4222419785616411" g="1.1925666886371882e-05" b="-4.1358753981345423e-05" ratedU1="150.53" ratedU2="63" bus1="_2b6ed996-027e-11e7-afc1-94659cb4e466" connectableBus1="_2b6ed996-027e-11e7-afc1-94659cb4e466" voltageLevelId1="_2b6ed997-027e-11e7-afc1-94659cb4e466" bus2="_2b6edfbd-027e-11e7-afc1-94659cb4e466" connectableBus2="_2b6edfbd-027e-11e7-afc1-94659cb4e466" voltageLevelId2="_2b6edfbe-027e-11e7-afc1-94659cb4e466" p1="11.58699334015944" q1="-0.80249896957792677" p2="-11.532542193116699" q2="1.1831413468913496">
            <iidm:ratioTapChanger lowTapPosition="1" tapPosition="18" targetDeadband="2.52" loadTapChangingCapabilities="true" regulating="true" targetV="63">
                <iidm:terminalRef id="_2be1579f-027e-11e7-afc1-94659cb4e466" side="TWO"/>
                <iidm:step r="0" x="0" g="0" b="0" rho="1.2178120107440247"/>
                <iidm:step r="0" x="0" g="0" b="0" rho="1.2032518603477014"/>
                <iidm:step r="0" x="0" g="0" b="0" rho="1.1890357585857894"/>
                <iidm:step r="0" x="0" g="0" b="0" rho="1.175151653320861"/>
                <iidm:step r="0" x="0" g="0" b="0" rho="1.1615880488387373"/>
                <iidm:step r="0" x="0" g="0" b="0" rho="1.1483339741036909"/>
                <iidm:step r="0" x="0" g="0" b="0" rho="1.1353789531624392"/>
                <iidm:step r="0" x="0" g="0" b="0" rho="1.1227129775291242"/>
                <iidm:step r="0" x="0" g="0" b="0" rho="1.1103264803982964"/>
                <iidm:step r="0" x="0" g="0" b="0" rho="1.0982103125462621"/>
                <iidm:step r="0" x="0" g="0" b="0" rho="1.0863557197932274"/>
                <iidm:step r="0" x="0" g="0" b="0" rho="1.0747543219095548"/>
                <iidm:step r="0" x="0" g="0" b="0" rho="1.0633980928593243"/>
                <iidm:step r="0" x="0" g="0" b="0" rho="1.0522793422833199"/>
                <iidm:step r="0" x="0" g="0" b="0" rho="1.0413906981316619"/>
                <iidm:step r="0" x="0" g="0" b="0" rho="1.0307250903636687"/>
                <iidm:step r="0" x="0" g="0" b="0" rho="1.0202757356392109"/>
                <iidm:step r="0" x="0" g="0" b="0" rho="1.0100361229319006"/>
                <iidm:step r="0" x="0" g="0" b="0" rho="1"/>
                <iidm:step r="0" x="0" g="0" b="0" rho="0.99016136065597793"/>
                <iidm:step r="0" x="0" g="0" b="0" rho="0.98051443278024486"/>
                <iidm:step r="0" x="0" g="0" b="0" rho="0.97105366702880491"/>
                <iidm:step r="0" x="0" g="0" b="0" rho="0.96177372618840606"/>
                <iidm:step r="0" x="0" g="0" b="0" rho="0.95266947513627942"/>
                <iidm:step r="0" x="0" g="0" b="0" rho="0.94373597136478571"/>
                <iidm:step r="0" x="0" g="0" b="0" rho="0.9349684560342304"/>
                <iidm:step r="0" x="0" g="0" b="0" rho="0.92636234551981522"/>
            </iidm:ratioTapChanger>
            <iidm:currentLimits1 permanentLimit="241.633342">
                <iidm:temporaryLimit name="_3c703609-4827-11ea-80e2-00155d739404" acceptableDuration="7200" value="289.96001000000001"/>
                <iidm:temporaryLimit name="_3c70360a-4827-11ea-80e2-00155d739404" acceptableDuration="900" value="314.12334399999997"/>
            </iidm:currentLimits1>
            <iidm:currentLimits2 permanentLimit="577.35026900000003">
                <iidm:temporaryLimit name="_3c70360d-4827-11ea-80e2-00155d739404" acceptableDuration="7200" value="692.82032300000003"/>
                <iidm:temporaryLimit name="_3c70360e-4827-11ea-80e2-00155d739404" acceptableDuration="900" value="750.55534999999998"/>
            </iidm:currentLimits2>
        </iidm:twoWindingsTransformer>
        <iidm:twoWindingsTransformer id="_2be1577c-027e-11e7-afc1-94659cb4e466" name="AT 1 220/150 SCC" r="0.11249999999999999" x="9.0901859504132219" g="1.9999955555555558e-06" b="-5.6666720000000004e-06" ratedU1="220" ratedU2="150" bus1="_2b6edb8e-027e-11e7-afc1-94659cb4e466" connectableBus1="_2b6edb8e-027e-11e7-afc1-94659cb4e466" voltageLevelId1="_2b6edb8f-027e-11e7-afc1-94659cb4e466" bus2="_2b6ed996-027e-11e7-afc1-94659cb4e466" connectableBus2="_2b6ed996-027e-11e7-afc1-94659cb4e466" voltageLevelId2="_2b6ed997-027e-11e7-afc1-94659cb4e466" p1="16.398366823189239" q1="1.0582120622740867" p2="-16.352116359430319" q2="-0.82235488484797459">
            <iidm:ratioTapChanger lowTapPosition="1" tapPosition="11" targetDeadband="22" loadTapChangingCapabilities="true" regulating="true" targetV="220">
                <iidm:terminalRef id="_63b04e82-db70-11e8-80ee-00155d38aa06" side="ONE"/>
                <iidm:step r="0" x="0" g="0" b="0" rho="1.1111111111111112"/>
                <iidm:step r="0" x="0" g="0" b="0" rho="1.0989010989010988"/>
                <iidm:step r="0" x="0" g="0" b="0" rho="1.0869565217391304"/>
                <iidm:step r="0" x="0" g="0" b="0" rho="1.0752688172043012"/>
                <iidm:step r="0" x="0" g="0" b="0" rho="1.0638297872340425"/>
                <iidm:step r="0" x="0" g="0" b="0" rho="1.0526315789473684"/>
                <iidm:step r="0" x="0" g="0" b="0" rho="1.0416666666666667"/>
                <iidm:step r="0" x="0" g="0" b="0" rho="1.0309278350515465"/>
                <iidm:step r="0" x="0" g="0" b="0" rho="1.0204081632653061"/>
                <iidm:step r="0" x="0" g="0" b="0" rho="1.0101010101010102"/>
                <iidm:step r="0" x="0" g="0" b="0" rho="1"/>
                <iidm:step r="0" x="0" g="0" b="0" rho="0.99009900990099009"/>
                <iidm:step r="0" x="0" g="0" b="0" rho="0.98039215686274506"/>
                <iidm:step r="0" x="0" g="0" b="0" rho="0.970873786407767"/>
                <iidm:step r="0" x="0" g="0" b="0" rho="0.96153846153846145"/>
                <iidm:step r="0" x="0" g="0" b="0" rho="0.95238095238095233"/>
                <iidm:step r="0" x="0" g="0" b="0" rho="0.94339622641509424"/>
                <iidm:step r="0" x="0" g="0" b="0" rho="0.93457943925233644"/>
                <iidm:step r="0" x="0" g="0" b="0" rho="0.92592592592592582"/>
                <iidm:step r="0" x="0" g="0" b="0" rho="0.9174311926605504"/>
                <iidm:step r="0" x="0" g="0" b="0" rho="0.90909090909090906"/>
            </iidm:ratioTapChanger>
            <iidm:currentLimits1 permanentLimit="656.07985099999996">
                <iidm:temporaryLimit name="_36601bcb-4827-11ea-80e2-00155d739404" acceptableDuration="7200" value="688.88384399999995"/>
                <iidm:temporaryLimit name="_36601bcc-4827-11ea-80e2-00155d739404" acceptableDuration="900" value="721.68783599999995"/>
            </iidm:currentLimits1>
            <iidm:currentLimits2 permanentLimit="962.250449">
                <iidm:temporaryLimit name="_36601bcf-4827-11ea-80e2-00155d739404" acceptableDuration="7200" value="1010.362971"/>
                <iidm:temporaryLimit name="_36601bd0-4827-11ea-80e2-00155d739404" acceptableDuration="900" value="1058.475494"/>
            </iidm:currentLimits2>
        </iidm:twoWindingsTransformer>
        <iidm:twoWindingsTransformer id="_2be157b1-027e-11e7-afc1-94659cb4e466" name="TR 5 150/60 SCC" r="0.10120949999999998" x="3.8448143999999993" g="1.1086167800453517e-05" b="-1.8644557823129254e-05" ratedU1="150" ratedU2="63" bus1="_2b6ed996-027e-11e7-afc1-94659cb4e466" connectableBus1="_2b6ed996-027e-11e7-afc1-94659cb4e466" voltageLevelId1="_2b6ed997-027e-11e7-afc1-94659cb4e466" bus2="_2b6edfbd-027e-11e7-afc1-94659cb4e466" connectableBus2="_2b6edfbd-027e-11e7-afc1-94659cb4e466" voltageLevelId2="_2b6edfbe-027e-11e7-afc1-94659cb4e466" p1="19.517934371827103" q1="2.7526059025130092" p2="-19.463474870653055" q2="-2.3095108221521254">
            <iidm:ratioTapChanger lowTapPosition="1" tapPosition="12" targetDeadband="2.52" loadTapChangingCapabilities="true" regulating="true" targetV="63">
                <iidm:terminalRef id="_2be1579f-027e-11e7-afc1-94659cb4e466" side="TWO"/>
                <iidm:step r="0" x="0" g="0" b="0" rho="1.142956416785915"/>
                <iidm:step r="0" x="0" g="0" b="0" rho="1.1295006364736087"/>
                <iidm:step r="0" x="0" g="0" b="0" rho="1.1163579936814139"/>
                <iidm:step r="0" x="0" g="0" b="0" rho="1.1035176833191163"/>
                <iidm:step r="0" x="0" g="0" b="0" rho="1.0909693917627448"/>
                <iidm:step r="0" x="0" g="0" b="0" rho="1.0787032692259981"/>
                <iidm:step r="0" x="0" g="0" b="0" rho="1.0667099039747745"/>
                <iidm:step r="0" x="0" g="0" b="0" rho="1.0549802982429304"/>
                <iidm:step r="0" x="0" g="0" b="0" rho="1.0435058457197477"/>
                <iidm:step r="0" x="0" g="0" b="0" rho="1.0322783104907347"/>
                <iidm:step r="0" x="0" g="0" b="0" rho="1.0212898073234651"/>
                <iidm:step r="0" x="0" g="0" b="0" rho="1.0105327831992861"/>
                <iidm:step r="0" x="0" g="0" b="0" rho="1"/>
                <iidm:step r="0" x="0" g="0" b="0" rho="0.98968451826611226"/>
                <iidm:step r="0" x="0" g="0" b="0" rho="0.97957968195006895"/>
                <iidm:step r="0" x="0" g="0" b="0" rho="0.9696791040940822"/>
                <iidm:step r="0" x="0" g="0" b="0" rho="0.95997665336779003"/>
                <iidm:step r="0" x="0" g="0" b="0" rho="0.95046644140612013"/>
                <iidm:step r="0" x="0" g="0" b="0" rho="0.94114281089241048"/>
                <iidm:step r="0" x="0" g="0" b="0" rho="0.9320003243361128"/>
                <iidm:step r="0" x="0" g="0" b="0" rho="0.92303375349829797"/>
                <iidm:step r="0" x="0" g="0" b="0" rho="0.91423806942175356"/>
                <iidm:step r="0" x="0" g="0" b="0" rho="0.90560843302572824"/>
                <iidm:step r="0" x="0" g="0" b="0" rho="0.89714018622835978"/>
                <iidm:step r="0" x="0" g="0" b="0" rho="0.88882884356256819"/>
            </iidm:ratioTapChanger>
            <iidm:currentLimits1 permanentLimit="484.97422599999999">
                <iidm:temporaryLimit name="_3c703611-4827-11ea-80e2-00155d739404" acceptableDuration="7200" value="509.222937"/>
                <iidm:temporaryLimit name="_3c703612-4827-11ea-80e2-00155d739404" acceptableDuration="900" value="533.47164899999996"/>
            </iidm:currentLimits1>
            <iidm:currentLimits2 permanentLimit="1154.7005380000001">
                <iidm:temporaryLimit name="_3c703615-4827-11ea-80e2-00155d739404" acceptableDuration="7200" value="1212.435565"/>
                <iidm:temporaryLimit name="_3c703616-4827-11ea-80e2-00155d739404" acceptableDuration="900" value="1270.1705919999999"/>
            </iidm:currentLimits2>
        </iidm:twoWindingsTransformer>
        <iidm:twoWindingsTransformer id="_2be1578e-027e-11e7-afc1-94659cb4e466" name="AT 2 220/150 SCC" r="0.153" x="9.1078512396694205" g="1.7333438222222224e-06" b="-8.6044444444444441e-06" ratedU1="220" ratedU2="150" bus1="_2b6edb8e-027e-11e7-afc1-94659cb4e466" connectableBus1="_2b6edb8e-027e-11e7-afc1-94659cb4e466" voltageLevelId1="_2b6edb8f-027e-11e7-afc1-94659cb4e466" bus2="_2b6ed996-027e-11e7-afc1-94659cb4e466" connectableBus2="_2b6ed996-027e-11e7-afc1-94659cb4e466" voltageLevelId2="_2b6ed997-027e-11e7-afc1-94659cb4e466" p1="16.363557026631824" q1="1.0501335793694908" p2="-16.322817095295097" q2="-0.74853889418607877">
            <iidm:ratioTapChanger lowTapPosition="1" tapPosition="11" targetDeadband="22" loadTapChangingCapabilities="true" regulating="true" targetV="220">
                <iidm:terminalRef id="_63b04e82-db70-11e8-80ee-00155d38aa06" side="ONE"/>
                <iidm:step r="0" x="0" g="0" b="0" rho="1.1111111111111112"/>
                <iidm:step r="0" x="0" g="0" b="0" rho="1.0989010989010988"/>
                <iidm:step r="0" x="0" g="0" b="0" rho="1.0869565217391304"/>
                <iidm:step r="0" x="0" g="0" b="0" rho="1.0752688172043012"/>
                <iidm:step r="0" x="0" g="0" b="0" rho="1.0638297872340425"/>
                <iidm:step r="0" x="0" g="0" b="0" rho="1.0526315789473684"/>
                <iidm:step r="0" x="0" g="0" b="0" rho="1.0416666666666667"/>
                <iidm:step r="0" x="0" g="0" b="0" rho="1.0309278350515465"/>
                <iidm:step r="0" x="0" g="0" b="0" rho="1.0204081632653061"/>
                <iidm:step r="0" x="0" g="0" b="0" rho="1.0101010101010102"/>
                <iidm:step r="0" x="0" g="0" b="0" rho="1"/>
                <iidm:step r="0" x="0" g="0" b="0" rho="0.99009900990099009"/>
                <iidm:step r="0" x="0" g="0" b="0" rho="0.98039215686274506"/>
                <iidm:step r="0" x="0" g="0" b="0" rho="0.970873786407767"/>
                <iidm:step r="0" x="0" g="0" b="0" rho="0.96153846153846145"/>
                <iidm:step r="0" x="0" g="0" b="0" rho="0.95238095238095233"/>
                <iidm:step r="0" x="0" g="0" b="0" rho="0.94339622641509424"/>
                <iidm:step r="0" x="0" g="0" b="0" rho="0.93457943925233644"/>
                <iidm:step r="0" x="0" g="0" b="0" rho="0.92592592592592582"/>
                <iidm:step r="0" x="0" g="0" b="0" rho="0.9174311926605504"/>
                <iidm:step r="0" x="0" g="0" b="0" rho="0.90909090909090906"/>
            </iidm:ratioTapChanger>
            <iidm:currentLimits1 permanentLimit="656.07985099999996">
                <iidm:temporaryLimit name="_3c703601-4827-11ea-80e2-00155d739404" acceptableDuration="7200" value="688.88384399999995"/>
                <iidm:temporaryLimit name="_3c703602-4827-11ea-80e2-00155d739404" acceptableDuration="900" value="721.68783599999995"/>
            </iidm:currentLimits1>
            <iidm:currentLimits2 permanentLimit="962.250449">
                <iidm:temporaryLimit name="_3c703605-4827-11ea-80e2-00155d739404" acceptableDuration="7200" value="1010.362971"/>
                <iidm:temporaryLimit name="_3c703606-4827-11ea-80e2-00155d739404" acceptableDuration="900" value="1058.475494"/>
            </iidm:currentLimits2>
        </iidm:twoWindingsTransformer>
    </iidm:substation>
    <iidm:substation id="_2b6ee065-027e-11e7-afc1-94659cb4e466" name="CABRIL" country="PT" geographicalTags="_2b6ed85d-027e-11e7-afc1-94659cb4e466">
        <iidm:voltageLevel id="_2b6ee067-027e-11e7-afc1-94659cb4e466" name="CAB_150" nominalV="150" topologyKind="BUS_BREAKER">
            <iidm:busBreakerTopology>
                <iidm:bus id="_2b6ee066-027e-11e7-afc1-94659cb4e466" name="CABRIL" v="150" angle="8.9810838125740666"/>
            </iidm:busBreakerTopology>
        </iidm:voltageLevel>
        <iidm:voltageLevel id="_2b6eebfe-027e-11e7-afc1-94659cb4e466" name="HA-_16" nominalV="15.5" topologyKind="BUS_BREAKER">
            <iidm:busBreakerTopology>
                <iidm:bus id="_2b6eebfd-027e-11e7-afc1-94659cb4e466" name="HA-CR1" v="13.831368400000001" angle="15.407932016974868"/>
            </iidm:busBreakerTopology>
            <iidm:generator id="_2b6ef7d6-027e-11e7-afc1-94659cb4e466" name="8041_1 " energySource="HYDRO" minP="0" maxP="54" ratedS="62" voltageRegulatorOn="true" targetP="50" targetV="150" targetQ="-7.7372019999999999" bus="_2b6eebfd-027e-11e7-afc1-94659cb4e466" connectableBus="_2b6eebfd-027e-11e7-afc1-94659cb4e466" p="-50.007454473691361" q="7.7374408999014017">
                <iidm:regulatingTerminal id="_2be151ae-027e-11e7-afc1-94659cb4e466" side="ONE"/>
                <iidm:minMaxReactiveLimits minQ="-15" maxQ="30"/>
            </iidm:generator>
        </iidm:voltageLevel>
        <iidm:voltageLevel id="_2b6eec0b-027e-11e7-afc1-94659cb4e466" name="HA-_16" nominalV="15.5" topologyKind="BUS_BREAKER">
            <iidm:busBreakerTopology>
                <iidm:bus id="_2b6eec0a-027e-11e7-afc1-94659cb4e466" name="HA-CR2" v="13.831368400000001" angle="15.407932016974868"/>
            </iidm:busBreakerTopology>
            <iidm:generator id="_2b6ef7dc-027e-11e7-afc1-94659cb4e466" name="8042_1 " energySource="HYDRO" minP="0" maxP="54" ratedS="62" voltageRegulatorOn="true" targetP="50" targetV="150" targetQ="-7.7372019999999999" bus="_2b6eec0a-027e-11e7-afc1-94659cb4e466" connectableBus="_2b6eec0a-027e-11e7-afc1-94659cb4e466" p="-50.007454473691361" q="7.7374408999014017">
                <iidm:regulatingTerminal id="_2be151ae-027e-11e7-afc1-94659cb4e466" side="ONE"/>
                <iidm:minMaxReactiveLimits minQ="-15" maxQ="30"/>
            </iidm:generator>
        </iidm:voltageLevel>
        <iidm:twoWindingsTransformer id="_2be16368-027e-11e7-afc1-94659cb4e466" name="TR G2 CCR" r="0.019700941230486685" x="0.43317361799816345" g="0.00030722038501560878" b="-0.0030722038501560874" ratedU1="165" ratedU2="15.5" bus1="_2b6ee066-027e-11e7-afc1-94659cb4e466" connectableBus1="_2b6ee066-027e-11e7-afc1-94659cb4e466" voltageLevelId1="_2b6ee067-027e-11e7-afc1-94659cb4e466" bus2="_2b6eec0a-027e-11e7-afc1-94659cb4e466" connectableBus2="_2b6eec0a-027e-11e7-afc1-94659cb4e466" voltageLevelId2="_2b6eec0b-027e-11e7-afc1-94659cb4e466" p1="-49.675388084467386" q1="14.141090034374093" p2="50.000001309446837" q2="-7.7349023232585328">
            <iidm:ratioTapChanger lowTapPosition="1" tapPosition="2" loadTapChangingCapabilities="false">
                <iidm:step r="0" x="0" g="0" b="0" rho="1.0526315789473684"/>
                <iidm:step r="0" x="0" g="0" b="0" rho="1"/>
                <iidm:step r="0" x="0" g="0" b="0" rho="0.95238095238095233"/>
            </iidm:ratioTapChanger>
            <iidm:currentLimits1 permanentLimit="426.88929000000002">
                <iidm:temporaryLimit name="_3104eab9-4828-11ea-80e2-00155d739404" acceptableDuration="7200" value="426.88929000000002"/>
            </iidm:currentLimits1>
            <iidm:currentLimits2 permanentLimit="4544.3053449999998">
                <iidm:temporaryLimit name="_3104eabc-4828-11ea-80e2-00155d739404" acceptableDuration="7200" value="4544.3053449999998"/>
            </iidm:currentLimits2>
        </iidm:twoWindingsTransformer>
        <iidm:twoWindingsTransformer id="_2be16359-027e-11e7-afc1-94659cb4e466" name="TR G1 CCR" r="0.019700941230486685" x="0.43317361799816345" g="0.00030722038501560878" b="-0.0030722038501560874" ratedU1="165" ratedU2="15.5" bus1="_2b6ee066-027e-11e7-afc1-94659cb4e466" connectableBus1="_2b6ee066-027e-11e7-afc1-94659cb4e466" voltageLevelId1="_2b6ee067-027e-11e7-afc1-94659cb4e466" bus2="_2b6eebfd-027e-11e7-afc1-94659cb4e466" connectableBus2="_2b6eebfd-027e-11e7-afc1-94659cb4e466" voltageLevelId2="_2b6eebfe-027e-11e7-afc1-94659cb4e466" p1="-49.675388084467386" q1="14.141090034374093" p2="50.000001309446837" q2="-7.7349023232585328">
            <iidm:ratioTapChanger lowTapPosition="1" tapPosition="2" loadTapChangingCapabilities="false">
                <iidm:step r="0" x="0" g="0" b="0" rho="1.0526315789473684"/>
                <iidm:step r="0" x="0" g="0" b="0" rho="1"/>
                <iidm:step r="0" x="0" g="0" b="0" rho="0.95238095238095233"/>
            </iidm:ratioTapChanger>
            <iidm:currentLimits1 permanentLimit="426.88929000000002">
                <iidm:temporaryLimit name="_3104eab3-4828-11ea-80e2-00155d739404" acceptableDuration="7200" value="426.88929000000002"/>
            </iidm:currentLimits1>
            <iidm:currentLimits2 permanentLimit="4544.3053449999998">
                <iidm:temporaryLimit name="_3104eab6-4828-11ea-80e2-00155d739404" acceptableDuration="7200" value="4544.3053449999998"/>
            </iidm:currentLimits2>
        </iidm:twoWindingsTransformer>
    </iidm:substation>
    <iidm:substation id="_2b6ee071-027e-11e7-afc1-94659cb4e466" name="BOUCA" country="PT" geographicalTags="_2b6ed85d-027e-11e7-afc1-94659cb4e466">
        <iidm:voltageLevel id="_2b6ee073-027e-11e7-afc1-94659cb4e466" name="BOU_150" nominalV="150" topologyKind="BUS_BREAKER">
            <iidm:busBreakerTopology>
                <iidm:bus id="_2b6ee072-027e-11e7-afc1-94659cb4e466" name="BOUCA" v="150" angle="7.7693179041489486"/>
            </iidm:busBreakerTopology>
        </iidm:voltageLevel>
        <iidm:voltageLevel id="_2b6eec32-027e-11e7-afc1-94659cb4e466" name="HA-_6" nominalV="6" topologyKind="BUS_BREAKER">
            <iidm:busBreakerTopology>
                <iidm:bus id="_2b6eec31-027e-11e7-afc1-94659cb4e466" name="HA-BC1" v="5.3888769999999999" angle="14.864937479317522"/>
            </iidm:busBreakerTopology>
            <iidm:generator id="_2b6ef7f2-027e-11e7-afc1-94659cb4e466" name="8061_1 " energySource="HYDRO" minP="0" maxP="22" ratedS="26" voltageRegulatorOn="true" targetP="22" targetV="150" targetQ="-1.59890759" bus="_2b6eec31-027e-11e7-afc1-94659cb4e466" connectableBus="_2b6eec31-027e-11e7-afc1-94659cb4e466" p="-22.003279968424202" q="1.614783785629158">
                <iidm:regulatingTerminal id="_2be151ae-027e-11e7-afc1-94659cb4e466" side="TWO"/>
                <iidm:minMaxReactiveLimits minQ="-12" maxQ="13"/>
            </iidm:generator>
        </iidm:voltageLevel>
        <iidm:voltageLevel id="_2b6eec40-027e-11e7-afc1-94659cb4e466" name="HA-_6" nominalV="6" topologyKind="BUS_BREAKER">
            <iidm:busBreakerTopology>
                <iidm:bus id="_2b6eec3f-027e-11e7-afc1-94659cb4e466" name="HA-BC2" v="5.3888769999999999" angle="14.864937479317522"/>
            </iidm:busBreakerTopology>
            <iidm:generator id="_2b6ef7f8-027e-11e7-afc1-94659cb4e466" name="8062_1 " energySource="HYDRO" minP="0" maxP="22" ratedS="26" voltageRegulatorOn="true" targetP="22" targetV="150" targetQ="-1.59890759" bus="_2b6eec3f-027e-11e7-afc1-94659cb4e466" connectableBus="_2b6eec3f-027e-11e7-afc1-94659cb4e466" p="-22.003279968424202" q="1.614783785629158">
                <iidm:regulatingTerminal id="_2be151ae-027e-11e7-afc1-94659cb4e466" side="TWO"/>
                <iidm:minMaxReactiveLimits minQ="-12" maxQ="13"/>
            </iidm:generator>
        </iidm:voltageLevel>
        <iidm:twoWindingsTransformer id="_2be16386-027e-11e7-afc1-94659cb4e466" name="TR G2 CBC" r="0.0064440330578512395" x="0.16456198347107437" g="0.00094107750000000019" b="-0.0094107750000000014" ratedU1="165" ratedU2="6" bus1="_2b6ee072-027e-11e7-afc1-94659cb4e466" connectableBus1="_2b6ee072-027e-11e7-afc1-94659cb4e466" voltageLevelId1="_2b6ee073-027e-11e7-afc1-94659cb4e466" bus2="_2b6eec3f-027e-11e7-afc1-94659cb4e466" connectableBus2="_2b6eec3f-027e-11e7-afc1-94659cb4e466" voltageLevelId2="_2b6eec40-027e-11e7-afc1-94659cb4e466" p1="-21.863229658344409" q1="4.6524401226092555" p2="21.999221344523637" q2="-1.6147837849992803">
            <iidm:ratioTapChanger lowTapPosition="1" tapPosition="2" loadTapChangingCapabilities="false">
                <iidm:step r="0" x="0" g="0" b="0" rho="1.0471204188481675"/>
                <iidm:step r="0" x="0" g="0" b="0" rho="1"/>
                <iidm:step r="0" x="0" g="0" b="0" rho="0.95693779904306231"/>
            </iidm:ratioTapChanger>
            <iidm:currentLimits1 permanentLimit="195.94918200000001">
                <iidm:temporaryLimit name="_3104eac5-4828-11ea-80e2-00155d739404" acceptableDuration="7200" value="195.94918200000001"/>
            </iidm:currentLimits1>
            <iidm:currentLimits2 permanentLimit="5388.6025120000004">
                <iidm:temporaryLimit name="_3104eac8-4828-11ea-80e2-00155d739404" acceptableDuration="7200" value="5388.6025120000004"/>
            </iidm:currentLimits2>
        </iidm:twoWindingsTransformer>
        <iidm:twoWindingsTransformer id="_2be16377-027e-11e7-afc1-94659cb4e466" name="TR G1 CBC" r="0.0064440330578512395" x="0.16456198347107437" g="0.00094107750000000019" b="-0.0094107750000000014" ratedU1="165" ratedU2="6" bus1="_2b6ee072-027e-11e7-afc1-94659cb4e466" connectableBus1="_2b6ee072-027e-11e7-afc1-94659cb4e466" voltageLevelId1="_2b6ee073-027e-11e7-afc1-94659cb4e466" bus2="_2b6eec31-027e-11e7-afc1-94659cb4e466" connectableBus2="_2b6eec31-027e-11e7-afc1-94659cb4e466" voltageLevelId2="_2b6eec32-027e-11e7-afc1-94659cb4e466" p1="-21.863229658344409" q1="4.6524401226092555" p2="21.999221344523637" q2="-1.6147837849992803">
            <iidm:ratioTapChanger lowTapPosition="1" tapPosition="2" loadTapChangingCapabilities="false">
                <iidm:step r="0" x="0" g="0" b="0" rho="1.0471204188481675"/>
                <iidm:step r="0" x="0" g="0" b="0" rho="1"/>
                <iidm:step r="0" x="0" g="0" b="0" rho="0.95693779904306231"/>
            </iidm:ratioTapChanger>
            <iidm:currentLimits1 permanentLimit="195.94918200000001">
                <iidm:temporaryLimit name="_3104eabf-4828-11ea-80e2-00155d739404" acceptableDuration="7200" value="195.94918200000001"/>
            </iidm:currentLimits1>
            <iidm:currentLimits2 permanentLimit="5388.6025120000004">
                <iidm:temporaryLimit name="_3104eac2-4828-11ea-80e2-00155d739404" acceptableDuration="7200" value="5388.6025120000004"/>
            </iidm:currentLimits2>
        </iidm:twoWindingsTransformer>
    </iidm:substation>
    <iidm:substation id="_2b6ee126-027e-11e7-afc1-94659cb4e466" name="C.BODE" country="PT" geographicalTags="_2b6ed85d-027e-11e7-afc1-94659cb4e466">
        <iidm:voltageLevel id="_2b6ee128-027e-11e7-afc1-94659cb4e466" name="C.B_220" nominalV="220" topologyKind="BUS_BREAKER">
            <iidm:busBreakerTopology>
                <iidm:bus id="_2b6ee127-027e-11e7-afc1-94659cb4e466" name="C.BODE" v="220.03816200000003" angle="3.0343585505781534"/>
                <iidm:bus id="_2b6ee133-027e-11e7-afc1-94659cb4e466" name="C.BODE" v="220.04667699999999" angle="3.033946699109396"/>
                <iidm:bus id="_2b6ee13f-027e-11e7-afc1-94659cb4e466" name="C.BODE" v="220.04144299999996" angle="3.0234085369633208"/>
            </iidm:busBreakerTopology>
        </iidm:voltageLevel>
        <iidm:voltageLevel id="_2b6eeb87-027e-11e7-afc1-94659cb4e466" name="HA-_16" nominalV="15.5" topologyKind="BUS_BREAKER">
            <iidm:busBreakerTopology>
                <iidm:bus id="_2b6eeb86-027e-11e7-afc1-94659cb4e466" name="HA-CB1" v="15.626347412989425" angle="9.5029541277654364"/>
            </iidm:busBreakerTopology>
            <iidm:generator id="_2b6ef79a-027e-11e7-afc1-94659cb4e466" name="8011_1 " energySource="HYDRO" minP="0" maxP="53" ratedS="60" voltageRegulatorOn="true" targetP="53" targetV="220" targetQ="27.000001900000001" bus="_2b6eeb86-027e-11e7-afc1-94659cb4e466" connectableBus="_2b6eeb86-027e-11e7-afc1-94659cb4e466" p="-53.00790174211285" q="-25.316355134472662">
                <iidm:regulatingTerminal id="_9599abc5-f4b4-11e9-80d9-00155d739404" side="ONE"/>
                <iidm:minMaxReactiveLimits minQ="-16" maxQ="27"/>
            </iidm:generator>
        </iidm:voltageLevel>
        <iidm:voltageLevel id="_2b6eeb95-027e-11e7-afc1-94659cb4e466" name="HA-_16" nominalV="15.5" topologyKind="BUS_BREAKER">
            <iidm:busBreakerTopology>
                <iidm:bus id="_2b6eeb94-027e-11e7-afc1-94659cb4e466" name="HA-CB2" v="15.626898682529553" angle="9.5020623467852978"/>
            </iidm:busBreakerTopology>
            <iidm:generator id="_2b6ef7a0-027e-11e7-afc1-94659cb4e466" name="8012_1 " energySource="HYDRO" minP="0" maxP="53" ratedS="60" voltageRegulatorOn="true" targetP="53" targetV="220" targetQ="27.000001900000001" bus="_2b6eeb94-027e-11e7-afc1-94659cb4e466" connectableBus="_2b6eeb94-027e-11e7-afc1-94659cb4e466" p="-53.00790174211285" q="-25.316355134472662">
                <iidm:regulatingTerminal id="_9599abc5-f4b4-11e9-80d9-00155d739404" side="ONE"/>
                <iidm:minMaxReactiveLimits minQ="-16" maxQ="27"/>
            </iidm:generator>
        </iidm:voltageLevel>
        <iidm:voltageLevel id="_2b6eeba2-027e-11e7-afc1-94659cb4e466" name="HA-_16" nominalV="15.5" topologyKind="BUS_BREAKER">
            <iidm:busBreakerTopology>
                <iidm:bus id="_2b6eeba1-027e-11e7-afc1-94659cb4e466" name="HA-CB3" v="15.658634951296683" angle="5.8634388955612664"/>
            </iidm:busBreakerTopology>
            <iidm:generator id="_2b6ef7a6-027e-11e7-afc1-94659cb4e466" name="8013_1 " energySource="HYDRO" minP="0" maxP="53" ratedS="60" voltageRegulatorOn="true" targetP="24" targetV="220" targetQ="27.000001900000001" bus="_2b6eeba1-027e-11e7-afc1-94659cb4e466" connectableBus="_2b6eeba1-027e-11e7-afc1-94659cb4e466" p="-24.003578147371854" q="-25.316355134472662">
                <iidm:regulatingTerminal id="_9599abc5-f4b4-11e9-80d9-00155d739404" side="ONE"/>
                <iidm:minMaxReactiveLimits minQ="-16" maxQ="27"/>
            </iidm:generator>
        </iidm:voltageLevel>
        <iidm:twoWindingsTransformer id="_2be16449-027e-11e7-afc1-94659cb4e466" name="TR G1 CCB" r="0.022823985081156472" x="0.50332175397985568" g="0.00021751768949843911" b="-0.0021547163269311129" ratedU1="218.46000000000001" ratedU2="15.5" bus1="_2b6ee127-027e-11e7-afc1-94659cb4e466" connectableBus1="_2b6ee127-027e-11e7-afc1-94659cb4e466" voltageLevelId1="_2b6ee128-027e-11e7-afc1-94659cb4e466" bus2="_2b6eeb86-027e-11e7-afc1-94659cb4e466" connectableBus2="_2b6eeb86-027e-11e7-afc1-94659cb4e466" voltageLevelId2="_2b6eeb87-027e-11e7-afc1-94659cb4e466" p1="-52.623663573555604" q1="-17.729116181316325" p2="52.999993296961321" q2="25.316355139075124">
            <iidm:ratioTapChanger lowTapPosition="1" tapPosition="3" loadTapChangingCapabilities="false">
                <iidm:step r="0" x="0" g="0" b="0" rho="1"/>
                <iidm:step r="0" x="0" g="0" b="0" rho="0.97424581196081583"/>
                <iidm:step r="0" x="0" g="0" b="0" rho="0.9497848737261011"/>
                <iidm:step r="0" x="0" g="0" b="0" rho="0.92652216009376409"/>
                <iidm:step r="0" x="0" g="0" b="0" rho="0.9043717329571147"/>
            </iidm:ratioTapChanger>
            <iidm:currentLimits1 permanentLimit="277.49601000000001">
                <iidm:temporaryLimit name="_43699b9c-4828-11ea-80e2-00155d739404" acceptableDuration="7200" value="277.49601000000001"/>
            </iidm:currentLimits1>
            <iidm:currentLimits2 permanentLimit="3911.0824689999999">
                <iidm:temporaryLimit name="_43699b9f-4828-11ea-80e2-00155d739404" acceptableDuration="7200" value="3911.0824689999999"/>
            </iidm:currentLimits2>
        </iidm:twoWindingsTransformer>
        <iidm:twoWindingsTransformer id="_2be16458-027e-11e7-afc1-94659cb4e466" name="TR G2 CCB" r="0.022823985081156472" x="0.50332175397985568" g="0.00021751768949843911" b="-0.0021547163269311129" ratedU1="218.46000000000001" ratedU2="15.5" bus1="_2b6ee133-027e-11e7-afc1-94659cb4e466" connectableBus1="_2b6ee133-027e-11e7-afc1-94659cb4e466" voltageLevelId1="_2b6ee128-027e-11e7-afc1-94659cb4e466" bus2="_2b6eeb94-027e-11e7-afc1-94659cb4e466" connectableBus2="_2b6eeb94-027e-11e7-afc1-94659cb4e466" voltageLevelId2="_2b6eeb95-027e-11e7-afc1-94659cb4e466" p1="-52.623684192578679" q1="-17.729581479000249" p2="52.999994476898451" q2="25.316355139075409">
            <iidm:ratioTapChanger lowTapPosition="1" tapPosition="3" loadTapChangingCapabilities="false">
                <iidm:step r="0" x="0" g="0" b="0" rho="1"/>
                <iidm:step r="0" x="0" g="0" b="0" rho="0.97424581196081583"/>
                <iidm:step r="0" x="0" g="0" b="0" rho="0.9497848737261011"/>
                <iidm:step r="0" x="0" g="0" b="0" rho="0.92652216009376409"/>
                <iidm:step r="0" x="0" g="0" b="0" rho="0.9043717329571147"/>
            </iidm:ratioTapChanger>
            <iidm:currentLimits1 permanentLimit="277.49601000000001">
                <iidm:temporaryLimit name="_43699ba2-4828-11ea-80e2-00155d739404" acceptableDuration="7200" value="277.49601000000001"/>
            </iidm:currentLimits1>
            <iidm:currentLimits2 permanentLimit="3911.0824689999999">
                <iidm:temporaryLimit name="_43699ba5-4828-11ea-80e2-00155d739404" acceptableDuration="7200" value="3911.0824689999999"/>
            </iidm:currentLimits2>
        </iidm:twoWindingsTransformer>
...